data_I
_audit_creation_method         'generated by CrystalMaker X for Windows'
_cell_length_a                   7.446700(1)
_cell_length_b                   5.838300(1)
_cell_length_c                   7.990000(1)
_cell_angle_alpha               90.000000(0)
_cell_angle_beta                93.460000(100)
_cell_angle_gamma               90.000000(0)

_symmetry_space_group_name_H-M     'P 21/m'

loop_
_symmetry_equiv_pos_as_xyz
'+x,+y,+z'
'-x,1/2+y,-z'
'-x,-y,-z'
'+x,1/2-y,+z'

loop_
_atom_site_label
_atom_site_type_symbol
_atom_site_occupancy
_atom_site_fract_x
_atom_site_fract_y
_atom_site_fract_z
_atom_site_U_iso_or_equiv
 C11  C 1.0  0.34300000(300000)  0.75000000(0)  0.63400000(300000)  0.03770
 C12  C 1.0  0.52400000(300000)  0.75000000(0)  0.70800000(200000)  0.02790
 C21  C 1.0  0.11100000(300000)  0.75000000(0)  0.18500000(300000)  0.03000
 C22  C 1.0  0.18200000(200000)  0.75000000(0)  0.02600000(200000)  0.02620
 H12A  H 1.0  0.51680000(0)  0.75000000(0)  0.82630000(0)  0.08000
 H12B  H 1.0  0.58420000(0)  0.88440000(0)  0.67440000(0)  0.08000
 H22A  H 1.0  0.30940000(0)  0.75000000(0)  0.03440000(0)  0.08000
 H22B  H 1.0  0.14460000(0)  0.88070000(0)  -0.03700000(0)  0.08000
 O11  O 1.0  0.25500000(100000)  0.55900000(200000)  0.60200000(100000)  0.03810
 O21  O 1.0  0.08400000(100000)  0.56900000(100000)  0.27000000(100000)  0.01940
 Pd  Pd 1.0  0.00000000(0)  0.50000000(0)  0.50000000(0)  0.00950

